api/obj/Release/Package/PackageTmp/Sinap_Rede_CAI_teste_sem_trafos_Ajustada.dss
//--------------------------------------------------------------------------------
//Modelo de rede: cadastro GIS
//--------------------------------------------------------------------------------
//Transformadores trifásicos: ligacação Dy1
//--------------------------------------------------------------------------------
//Reinicia o programa
Clear
//--------------------------------------------------------------------------------
//Bloco com dados de fronteira
New Circuit.Rede_CAI_teste_sem_trafos_Ajustada_1
~ bus1=3259 basekv=88.00000000 pu=1.000 phases=3 mvasc3=600.0 600.0
//--------------------------------------------------------------------------------
//Bloco com dados de arranjos Z0/Z1
New Linecode.311 nphases=3 basefreq=60 units=km normamps=500.0 r1=0.20000000 x1=0.40000001 c1=0.000   ! código=SNP_BAR_CABO_EPR_15KV_CU_3X500MM__ABCN_id311
New Linecode.368 nphases=3 basefreq=60 units=km normamps=500.0 r1=0.20000000 x1=0.40000001 c1=0.000   ! código=SNP_SING_PVC_CU_1X500_MM__ABCN_id368
New Linecode.369 nphases=3 basefreq=60 units=km normamps=500.0 r1=0.20000000 x1=0.40000001 c1=0.000   ! código=SNP_SING_PVC_CU_1X70_MM__ABCN_id369
New Linecode.391 nphases=3 basefreq=60 units=km normamps=500.0 r1=0.20000000 x1=0.40000001 c1=0.000   ! código=SNP_Sing_XLPE_1KV_CU_70_mm__NEUTRO_ABCN_id391
New Linecode.462 nphases=3 basefreq=60 units=km normamps=500.0 r1=0.20000000 x1=0.40000001 c1=0.000   ! código=SNP_SING_PVC_CU_35_MM__ABCN_id462
New Linecode.386 nphases=3 basefreq=60 units=km normamps=500.0 r1=0.20000000 x1=0.40000001 c1=0.000   ! código=SNP_Sing_XLPE_1KV_CU_1x240_mm__ABCN_id386
New Linecode.437 nphases=3 basefreq=60 units=km normamps=500.0 r1=0.20000000 x1=0.40000001 c1=0.000   ! código=SNP_QUAD_XLPE_1KV_CU_4X1X35MM2_ABCN_id437
New Linecode.473 nphases=3 basefreq=60 units=km normamps=500.0 r1=0.20000000 x1=0.40000001 c1=0.000   ! código=SNP_TRIPLEX_XLPE_CU_3X1X35_MM2_ABCN_id473
New Linecode.402 nphases=3 basefreq=60 units=km normamps=500.0 r1=0.20000000 x1=0.40000001 c1=0.000   ! código=SNP_TRIP_EPRL_35KV_AL_3X1X750MM__ABCN_id402
New Linecode.37 nphases=3 basefreq=60 units=km normamps=428.0 r1=0.12192000 x1=0.24334000 c1=0.000   ! código=AES_SPACER_XLPE_25KV_AL_300_MM__ABCN_id37
New Linecode.38 nphases=3 basefreq=60 units=km normamps=212.0 r1=0.51857001 x1=0.29923001 c1=0.000   ! código=AES_SPACER_XLPE_25KV_AL_70_MM__ABCN_id38
New Linecode.36 nphases=3 basefreq=60 units=km normamps=361.0 r1=0.19673000 x1=0.26192001 c1=0.000   ! código=AES_SPACER_XLPE_25KV_AL_185_MM__ABCN_id36
New Linecode.90 nphases=3 basefreq=60 units=km normamps=420.0 r1=0.09412000 x1=0.12342000 c1=0.000   ! código=AES_Triplex_EPR_15KV_CU_3x1x240_mm_ABCN_id90
New Linecode.79 nphases=3 basefreq=60 units=km normamps=216.0 r1=0.31514001 x1=0.17095999 c1=0.000   ! código=AES_Quadr_EPR_35KV_CU_3x1x70_mm__ABCN_id79
New Linecode.74 nphases=3 basefreq=60 units=km normamps=435.0 r1=0.09408000 x1=0.13315000 c1=0.000   ! código=AES_QUADR_EPR_25KV_CU_3X1X240_MM__ABCN_id74
New Linecode.59 nphases=3 basefreq=60 units=km normamps=219.0 r1=0.31524000 x1=0.14808001 c1=0.000   ! código=AES_TRIP_XLPE_15KV_CU_3X1X70MM__ABCN_id59
New Linecode.86 nphases=3 basefreq=60 units=km normamps=117.0 r1=1.03840005 x1=0.16366000 c1=0.000   ! código=AES_Quadr_XLPE_15KV_AL_3x1x35_mm__ABCN_id86
New Linecode.109 nphases=3 basefreq=60 units=km normamps=212.0 r1=0.51857001 x1=0.29923001 c1=0.000   ! código=AES_SPACER_XLPE_25KV_AL_70_MM__BCN_id109
New Linecode.131 nphases=3 basefreq=60 units=km normamps=212.0 r1=0.51857001 x1=0.29923001 c1=0.000   ! código=AES_SPACER_XLPE_25KV_AL_70_MM__ABN_id131
New Linecode.28 nphases=3 basefreq=60 units=km normamps=435.0 r1=0.15200000 x1=0.11980000 c1=0.000   ! código=AES_PR__REU_15KV_AL_3X1X240_120MM__ABCN_id28
New Linecode.71 nphases=3 basefreq=60 units=km normamps=450.0 r1=0.09341000 x1=0.11466000 c1=0.000   ! código=AES_Quadr_EPR_15KV_AL_3x1x400_mm__ABCN_id71
//--------------------------------------------------------------------------------
//Bloco com dados de arranjos Cabo/Fase
New Linecode.138 nphases=4 basefreq=60 units=km normamps=364.0 kron=N   !código=AES001_SING_N__AL_336_4_MCM_ABCN_id138
~ rmatrix = (0.27114093 | 0.05775088 0.27114093 | 0.05775067 0.05775088 0.27114093 | 0.05794855 0.05794844 0.05794816 0.27153838 )
~ xmatrix = (0.88893354 | 0.53705806 0.88893354 | 0.48267201 0.53286821 0.88893354 | 0.43208885 0.42845601 0.42096600 0.88850695 )
New Linecode.139 nphases=4 basefreq=60 units=km normamps=71.0 kron=N   !código=AES002_SING_N___CU_16_MM__ABCN_id139
~ rmatrix = (1.42926097 | 0.05775088 1.42926097 | 0.05775067 0.05775088 1.42926097 | 0.05794855 0.05794844 0.05794816 1.42965841 )
~ xmatrix = (0.95869344 | 0.53705806 0.95869344 | 0.48267201 0.53286821 0.95869344 | 0.43208885 0.42845601 0.42096600 0.95826685 )
New Linecode.152 nphases=3 basefreq=60 units=km normamps=71.0 kron=N   !código=AES015_SING_N___CU_16_MM__CAN_id152
~ rmatrix = (1.42926097 | 0.05775067 1.42926097 | 0.05794855 0.05794816 1.42965841 )
~ xmatrix = (0.95869344 | 0.48267201 0.95869344 | 0.43208885 0.42096600 0.95826685 )
New Linecode.263 nphases=4 basefreq=60 units=km normamps=323.0 kron=N   !código=AES126_SING_XLPE_CU_4_0_AWG_ABCN_id263
~ rmatrix = (0.24116096 | 0.05775088 0.24116096 | 0.05775067 0.05775088 0.24116096 | 0.05794855 0.05794844 0.05794816 0.24155839 )
~ xmatrix = (0.89259559 | 0.53705806 0.89259559 | 0.48267201 0.53286821 0.89259559 | 0.43208885 0.42845601 0.42096600 0.89216900 )
New Linecode.189 nphases=4 basefreq=60 units=km normamps=236.0 kron=N   !código=AES052_SING_PVC_CU_1X70_MM__ABCN_id189
~ rmatrix = (0.37144095 | 0.05775088 0.37144095 | 0.05775067 0.05775088 0.37144095 | 0.05794855 0.05794844 0.05794816 0.37183839 )
~ xmatrix = (0.91108006 | 0.53705806 0.91108006 | 0.48267201 0.53286821 0.91108006 | 0.43208885 0.42845601 0.42096600 0.91065347 )
New Linecode.142 nphases=3 basefreq=60 units=km normamps=71.0 kron=N   !código=AES005_SING_N___CU_16_MM__ABN_id142
~ rmatrix = (1.42926097 | 0.05775088 1.42926097 | 0.05794855 0.05794844 1.42965841 )
~ xmatrix = (0.95869344 | 0.53705806 0.95869344 | 0.43208885 0.42845601 0.95826685 )
New Linecode.141 nphases=4 basefreq=60 units=km normamps=193.0 kron=N   !código=AES004_SING_PVC_AL_1_0_AWG_ABCN_id141
~ rmatrix = (0.73587096 | 0.05775088 0.73587096 | 0.05775067 0.05775088 0.73587096 | 0.05794855 0.05794844 0.05794816 0.73626840 )
~ xmatrix = (0.89614153 | 0.53705806 0.89614153 | 0.48267201 0.53286821 0.89614153 | 0.43208885 0.42845601 0.42096600 0.89571494 )
New Linecode.140 nphases=4 basefreq=60 units=km normamps=193.0 kron=N   !código=AES003_SING_N__AL_1_0_AWG_ABCN_id140
~ rmatrix = (0.73587096 | 0.05775088 0.73587096 | 0.05775067 0.05775088 0.73587096 | 0.05794855 0.05794844 0.05794816 0.73626840 )
~ xmatrix = (0.93348110 | 0.53705806 0.93348110 | 0.48267201 0.53286821 0.93348110 | 0.43208885 0.42845601 0.42096600 0.93305451 )
New Linecode.146 nphases=2 basefreq=60 units=km normamps=71.0 kron=N   !código=AES009_SING_N___CU_16_MM__CN_id146
~ rmatrix = (1.42926097 | 0.05794816 1.42965841 )
~ xmatrix = (0.95869344 | 0.42096600 0.95826685 )
New Linecode.143 nphases=3 basefreq=60 units=km normamps=71.0 kron=N   !código=AES006_SING_N___CU_16_MM__BCN_id143
~ rmatrix = (1.42926097 | 0.05775088 1.42926097 | 0.05794844 0.05794816 1.42965841 )
~ xmatrix = (0.95869344 | 0.53286821 0.95869344 | 0.42845601 0.42096600 0.95826685 )
New Linecode.210 nphases=3 basefreq=60 units=km normamps=193.0 kron=N   !código=AES073_SING_PVC_AL_1_0_AWG_ABN_id210
~ rmatrix = (0.73587096 | 0.05775088 0.73587096 | 0.05794855 0.05794844 0.73626840 )
~ xmatrix = (0.89614153 | 0.53705806 0.89614153 | 0.43208885 0.42845601 0.89571494 )
New Linecode.147 nphases=2 basefreq=60 units=km normamps=71.0 kron=N   !código=AES010_SING_N___CU_16_MM__AN_id147
~ rmatrix = (1.42926097 | 0.05794855 1.42965841 )
~ xmatrix = (0.95869344 | 0.43208885 0.95826685 )
New Linecode.150 nphases=2 basefreq=60 units=km normamps=193.0 kron=N   !código=AES013_SING_N__AL_1_0_AWG_CN_id150
~ rmatrix = (0.73587096 | 0.05794816 0.73626840 )
~ xmatrix = (0.93348110 | 0.42096600 0.93305451 )
New Linecode.190 nphases=2 basefreq=60 units=km normamps=193.0 kron=N   !código=AES053_SING_PVC_AL_1_0_AWG_AN_id190
~ rmatrix = (0.73587096 | 0.05794855 0.73626840 )
~ xmatrix = (0.89614153 | 0.43208885 0.89571494 )
New Linecode.236 nphases=4 basefreq=60 units=km normamps=61.0 kron=N   !código=AES099_SING_N__CU_16_MM__ABCN_id236
~ rmatrix = (1.42926097 | 0.05775088 1.42926097 | 0.05775067 0.05775088 1.42926097 | 0.05794855 0.05794844 0.05794816 1.42965841 )
~ xmatrix = (0.98543352 | 0.53705806 0.98543352 | 0.48267201 0.53286821 0.98543352 | 0.43208885 0.42845601 0.42096600 0.98500693 )
New Linecode.144 nphases=2 basefreq=60 units=km normamps=71.0 kron=N   !código=AES007_SING_N___CU_16_MM__BN_id144
~ rmatrix = (1.42926097 | 0.05794844 1.42965841 )
~ xmatrix = (0.95869344 | 0.42845601 0.95826685 )
New Linecode.188 nphases=4 basefreq=60 units=km normamps=554.0 kron=N   !código=AES051_SING_N__AL_556_5_MCM_ABCN_id188
~ rmatrix = (0.18716095 | 0.05775088 0.18716095 | 0.05775067 0.05775088 0.18716095 | 0.05794855 0.05794844 0.05794816 0.18755838 )
~ xmatrix = (0.86991614 | 0.53705806 0.86991614 | 0.48267201 0.53286821 0.86991614 | 0.43208885 0.42845601 0.42096600 0.86948955 )
New Linecode.148 nphases=2 basefreq=60 units=km normamps=193.0 kron=N   !código=AES011_SING_N__AL_1_0_AWG_BN_id148
~ rmatrix = (0.73587096 | 0.05794844 0.73626840 )
~ xmatrix = (0.93348110 | 0.42845601 0.93305451 )
New Linecode.145 nphases=3 basefreq=60 units=km normamps=193.0 kron=N   !código=AES008_SING_N__AL_1_0_AWG_BCN_id145
~ rmatrix = (0.73587096 | 0.05775088 0.73587096 | 0.05794844 0.05794816 0.73626840 )
~ xmatrix = (0.93348110 | 0.53286821 0.93348110 | 0.42845601 0.42096600 0.93305451 )
New Linecode.228 nphases=2 basefreq=60 units=km normamps=61.0 kron=N   !código=AES091_SING_N__CU_16_MM__BN_id228
~ rmatrix = (1.42926097 | 0.05794844 1.42965841 )
~ xmatrix = (0.98543352 | 0.42845601 0.98500693 )
New Linecode.211 nphases=4 basefreq=60 units=km normamps=554.0 kron=N   !código=AES074_SING_N__CAA_556_5_MCM_ABCN_id211
~ rmatrix = (0.18723096 | 0.05775088 0.18723096 | 0.05775067 0.05775088 0.18723096 | 0.05794855 0.05794844 0.05794816 0.18762839 )
~ xmatrix = (0.86802596 | 0.53705806 0.86802596 | 0.48267201 0.53286821 0.86802596 | 0.43208885 0.42845601 0.42096600 0.86759937 )
New Linecode.149 nphases=3 basefreq=60 units=km normamps=193.0 kron=N   !código=AES012_SING_N__AL_1_0_AWG_ABN_id149
~ rmatrix = (0.73587096 | 0.05775088 0.73587096 | 0.05794855 0.05794844 0.73626840 )
~ xmatrix = (0.93348110 | 0.53705806 0.93348110 | 0.43208885 0.42845601 0.93305451 )
New Linecode.303 nphases=3 basefreq=60 units=km normamps=61.0 kron=N   !código=AES166_SING_N__CU_16_MM__CAN_id303
~ rmatrix = (1.42926097 | 0.05775067 1.42926097 | 0.05794855 0.05794816 1.42965841 )
~ xmatrix = (0.98543352 | 0.48267201 0.98543352 | 0.43208885 0.42096600 0.98500693 )
New Linecode.183 nphases=3 basefreq=60 units=km normamps=193.0 kron=N   !código=AES046_SING_N__AL_1_0_AWG_CAN_id183
~ rmatrix = (0.73587096 | 0.05775067 0.73587096 | 0.05794855 0.05794816 0.73626840 )
~ xmatrix = (0.93348110 | 0.48267201 0.93348110 | 0.43208885 0.42096600 0.93305451 )
New Linecode.278 nphases=3 basefreq=60 units=km normamps=61.0 kron=N   !código=AES141_SING_N__CU_16_MM__ABN_id278
~ rmatrix = (1.42926097 | 0.05775088 1.42926097 | 0.05794855 0.05794844 1.42965841 )
~ xmatrix = (0.98543352 | 0.53705806 0.98543352 | 0.43208885 0.42845601 0.98500693 )
New Linecode.201 nphases=2 basefreq=60 units=km normamps=364.0 kron=N   !código=AES064_SING_N__AL_336_4_MCM_AN_id201
~ rmatrix = (0.27114093 | 0.05794855 0.27153838 )
~ xmatrix = (0.88893354 | 0.43208885 0.88850695 )
New Linecode.267 nphases=4 basefreq=60 units=km normamps=71.0 kron=N   !código=AES130_SING_N__CU_6_MM__ABCN_id267
~ rmatrix = (3.71344090 | 0.05775088 3.71344090 | 0.05775067 0.05775088 3.71344090 | 0.05794855 0.05794844 0.05794816 3.71383834 )
~ xmatrix = (1.02184963 | 0.53705806 1.02184963 | 0.48267201 0.53286821 1.02184963 | 0.43208885 0.42845601 0.42096600 1.02142298 )
//--------------------------------------------------------------------------------
//Bloco com dados de curvas típicas de demanda
New Loadshape.221  npts=24  interval=1  mult=(0.98802318 0.88500968 0.81049210 0.78461502 0.75908133 0.74241084 0.76963982 0.80480593 0.86259743 0.90485707 0.92762777 0.89857360 0.98382700 1.03174907 0.97327998 1.04404931 1.08630272 1.10348275 1.19519472 1.41969298 1.31428476 1.29648025 1.28227387 1.13164882)    ! código=Residencial
New Loadshape.222  npts=24  interval=1  mult=(0.66184809 0.64107463 0.65094664 0.67845975 0.73578879 0.91535083 1.01917929 1.20201301 1.25879653 1.26922296 1.31908241 1.35313228 1.19477469 1.24230900 1.30989296 1.26039346 1.18945635 1.17018301 1.01761601 0.95088503 0.83115784 0.75428989 0.67735159 0.69679492)    ! código=Industrial
New Loadshape.223  npts=24  interval=1  mult=(0.83191408 0.81189009 0.79701910 0.79076673 0.76592310 0.77533041 0.69708322 0.85594726 1.07784279 1.21439804 1.24538894 1.30135240 1.19887726 1.17732707 1.12801718 1.09414405 1.08995797 1.11538187 1.15832661 1.12313018 1.05811680 0.95220002 0.93000446 0.80966040)    ! código=Rural
New Loadshape.224  npts=24  interval=1  mult=(0.90103504 0.90717216 0.89595885 0.88158390 0.88732377 0.88428147 0.90327382 0.99314485 1.12772309 1.19717264 1.23347049 1.23295293 1.14892882 1.16497417 1.19143695 1.19205001 1.14986728 1.06412816 0.87212055 0.83373753 0.80591526 0.81885063 0.86283544 0.85006217)    ! código=A4
New Loadshape.225  npts=24  interval=1  mult=(0.67255972 0.64485739 0.64018344 0.62167027 0.61216725 0.61277292 0.65417129 0.76082965 1.04763658 1.28695544 1.41175977 1.44999759 1.42638176 1.34339058 1.35311128 1.35959760 1.29437177 1.29561484 1.19585957 1.09304591 0.95405524 0.82880560 0.74591732 0.69428721)    ! código=Comercial
New Loadshape.226  npts=24  interval=1  mult=(0.67255972 0.64485739 0.64018344 0.62167027 0.61216725 0.61277292 0.65417129 0.76082965 1.04763658 1.28695544 1.41175977 1.44999759 1.42638176 1.34339058 1.35311128 1.35959760 1.29437177 1.29561484 1.19585957 1.09304591 0.95405524 0.82880560 0.74591732 0.69428721)    ! código=Outros
//--------------------------------------------------------------------------------
//Bloco com dados de curvas típicas de IP
New Loadshape.227  npts=24  interval=1  mult=(0.99299997 1.00000000 0.99800003 0.98199999 0.97700000 0.98799998 0.31400001 0.14700000 0.00000000 0.00000000 0.00000000 0.00000000 0.00000000 0.00000000 0.00000000 0.00000000 0.01700000 0.64399999 0.97700000 0.97399998 0.97899997 0.98199999 0.97700000 0.99199998)    ! código=IP
//--------------------------------------------------------------------------------
//Bloco com dados de curvas próprias de demanda
New Loadshape.797  npts=24  interval=1   ! código=(null)
~ pmult=(0.00000000 0.00000000 0.00000000 0.00000000 0.00000000 0.00000000 0.00000000 0.00000000 0.00000000 0.00000000 0.00000000 0.00000000 0.00000000 0.00000000 0.00000000 0.00000000 0.00000000 0.00000000 0.00000000 0.00000000 0.00000000 0.00000000 0.00000000 0.00000000)
~ qmult=(0.00000000 0.00000000 0.00000000 0.00000000 0.00000000 0.00000000 0.00000000 0.00000000 0.00000000 0.00000000 0.00000000 0.00000000 0.00000000 0.00000000 0.00000000 0.00000000 0.00000000 0.00000000 0.00000000 0.00000000 0.00000000 0.00000000 0.00000000 0.00000000)
New Loadshape.796  npts=24  interval=1   ! código=(null)
~ pmult=(0.00000000 0.00000000 0.00000000 0.00000000 0.00000000 0.00000000 0.00000000 0.00000000 0.00000000 0.00000000 0.00000000 0.00000000 0.00000000 0.00000000 0.00000000 0.00000000 0.00000000 0.00000000 0.00000000 0.00000000 0.00000000 0.00000000 0.00000000 0.00000000)
~ qmult=(0.00000000 0.00000000 0.00000000 0.00000000 0.00000000 0.00000000 0.00000000 0.00000000 0.00000000 0.00000000 0.00000000 0.00000000 0.00000000 0.00000000 0.00000000 0.00000000 0.00000000 0.00000000 0.00000000 0.00000000 0.00000000 0.00000000 0.00000000 0.00000000)
New Loadshape.430  npts=24  interval=1   ! código=152EP010726
~ pmult=(0.00000000 0.00000000 0.00000000 0.00000000 0.00000000 0.00000000 0.00000000 0.00000000 0.00000000 0.00000000 0.00000000 0.00000000 0.00000000 0.00000000 0.00000000 0.00000000 0.00000000 0.00000000 0.00000000 0.00000000 0.00000000 0.00000000 0.00000000 0.00000000)
~ qmult=(0.00000000 0.00000000 0.00000000 0.00000000 0.00000000 0.00000000 0.00000000 0.00000000 0.00000000 0.00000000 0.00000000 0.00000000 0.00000000 0.00000000 0.00000000 0.00000000 0.00000000 0.00000000 0.00000000 0.00000000 0.00000000 0.00000000 0.00000000 0.00000000)
New Loadshape.433  npts=24  interval=1   ! código=152ET025018
~ pmult=(0.95576787 0.91476159 0.89054104 0.90466612 0.88544062 0.94985692 0.92351646 0.92547489 1.03348322 1.02465362 1.07976560 1.05495352 1.02293897 1.00216731 1.00890373 0.94029616 0.89935912 0.97095569 1.10193112 1.17473338 1.15577061 1.10613687 1.06675489 1.00717067)
~ qmult=(0.95954418 0.92105596 0.89656055 0.90860324 0.89026682 0.94828854 0.91981464 0.92079534 1.02548119 1.01663836 1.07290623 1.04795932 1.01898429 0.99608389 1.00544031 0.93765451 0.90177451 0.97263655 1.10253886 1.17860851 1.16030388 1.11344978 1.07191500 1.01269554)
New Loadshape.434  npts=24  interval=1   ! código=152IP19G431
~ pmult=(1.44124455 1.46737573 1.47581719 1.52323979 1.54160829 1.72558016 1.68297022 1.69089753 0.00000000 0.00000000 0.00000000 0.00000000 0.00000000 0.00000000 0.00000000 0.00000000 1.39275326 1.46263840 1.50437028 1.41949614 1.42497289 1.40029066 1.39445894 1.45228596)
~ qmult=(1.44649093 1.47346939 1.48239600 1.52803885 1.54479725 1.71905604 1.67224694 1.67424689 0.00000000 0.00000000 0.00000000 0.00000000 0.00000000 0.00000000 0.00000000 0.00000000 1.39231242 1.46013011 1.50094300 1.42001758 1.42635951 1.40380747 1.39938163 1.45630599)
New Loadshape.432  npts=24  interval=1   ! código=152ET025407
~ pmult=(0.83122902 0.78753629 0.75929861 0.76352820 0.75197718 0.82502147 0.83574645 0.90028455 1.04918730 1.13723205 1.16823158 1.17377116 1.16059482 1.15348104 1.12257872 1.10096867 1.06214328 1.13008559 1.17604728 1.17260837 1.08226828 1.00214650 0.95425715 0.89977642)
~ qmult=(0.83708440 0.79254582 0.76395082 0.76853568 0.75480160 0.82411953 0.83189243 0.89301730 1.04063570 1.12836383 1.16231156 1.16740606 1.15541680 1.14882603 1.11956445 1.10162936 1.06461205 1.13205836 1.17766688 1.17724826 1.08724933 1.00729430 0.95986785 0.90390160)
New Loadshape.435  npts=24  interval=1   ! código=152ET000657
~ pmult=(0.70876352 0.69372541 0.68625663 0.69084175 0.68611058 0.75437984 0.73329379 0.83317622 1.15159433 1.32433670 1.41584139 1.42633765 1.34006831 1.24922020 1.22219450 1.17902910 1.11247951 1.15976010 1.16301062 1.05195609 0.98884855 0.88358254 0.78900896 0.75618372)
~ qmult=(0.71374965 0.69865565 0.69197376 0.69562248 0.68896480 0.75354440 0.73064948 0.82719194 1.14331603 1.31477726 1.40914516 1.41908157 1.33503926 1.24438220 1.21966743 1.17971375 1.11543230 1.16136734 1.16457962 1.05646645 0.99297804 0.88902831 0.79420183 0.76047130)
New Loadshape.431  npts=24  interval=1   ! código=152ET007562
~ pmult=(0.69655117 0.67091249 0.65965195 0.66094246 0.65656290 0.73252549 0.75805153 0.86918539 1.11500931 1.29683658 1.34646686 1.38039021 1.33661654 1.29616514 1.26574427 1.24222475 1.17431858 1.23701349 1.20165851 1.08405121 0.96138596 0.84357692 0.77321086 0.74094743)
~ qmult=(0.70144485 0.67593658 0.66479081 0.66518013 0.66001171 0.73192180 0.75544735 0.86317910 1.10625610 1.28770103 1.33960197 1.37297243 1.33212297 1.29075662 1.26268611 1.24273277 1.17817355 1.23931855 1.20312252 1.08828099 0.96567161 0.84861577 0.77859606 0.74547860)
New Loadshape.436  npts=24  interval=1   ! código=152ET004501
~ pmult=(0.95366730 0.90587602 0.87540302 0.88652867 0.86765038 0.93594255 0.92449246 0.93507158 1.01268053 1.00862168 1.04468140 1.02565869 1.01460540 1.01591243 1.01111711 0.96010058 0.92907704 1.00437824 1.12478110 1.20263267 1.15946263 1.10928014 1.07773812 1.01464028)
~ qmult=(0.95957251 0.91180316 0.88182059 0.89151437 0.87129146 0.93396193 0.92120436 0.92729929 1.00439442 1.00166606 1.03835663 1.01911539 1.01039617 1.01115372 1.00752004 0.95910396 0.93109200 1.00520178 1.12495867 1.20594911 1.16398486 1.11571186 1.08432202 1.01860566)
New Loadshape.440  npts=24  interval=1   ! código=152ET029938
~ pmult=(0.64842613 0.63348515 0.63278672 0.63439860 0.63239192 0.70873316 0.73762835 0.86147821 1.14604370 1.35928593 1.42179489 1.46677186 1.40407312 1.34447670 1.32324610 1.28852824 1.20451333 1.26601355 1.20107380 1.03486177 0.90699867 0.77453053 0.69447634 0.67398323)
~ qmult=(0.65292963 0.63815271 0.63762224 0.63838812 0.63565673 0.70817265 0.73513419 0.85558973 1.13750060 1.35030710 1.41526479 1.45956770 1.39994134 1.33937910 1.32052328 1.28944914 1.20837291 1.26834315 1.20267268 1.03904298 0.91120766 0.77926332 0.69938267 0.67813558)
New Loadshape.438  npts=24  interval=1   ! código=152IP19G299
~ pmult=(1.44034872 1.46790380 1.47722199 1.52510141 1.54441658 1.72992394 1.68795051 1.69599905 0.00000000 0.00000000 0.00000000 0.00000000 0.00000000 0.00000000 0.00000000 0.00000000 1.39404931 1.46313776 1.50254726 1.41500604 1.42034120 1.39582472 1.39025573 1.44997197)
~ qmult=(1.44528144 1.47343073 1.48310209 1.52919338 1.54692851 1.72289959 1.67680497 1.67903103 0.00000000 0.00000000 0.00000000 0.00000000 0.00000000 0.00000000 0.00000000 0.00000000 1.39362262 1.46086307 1.49986345 1.41637525 1.42269235 1.40005360 1.39568781 1.45417012)
New Loadshape.437  npts=24  interval=1   ! código=152ET132570
~ pmult=(0.00000000 0.00000000 0.00000000 0.00000000 0.00000000 0.00000000 0.00000000 0.00000000 0.00000000 0.00000000 0.00000000 0.00000000 0.00000000 0.00000000 0.00000000 0.00000000 0.00000000 0.00000000 0.00000000 0.00000000 0.00000000 0.00000000 0.00000000 0.00000000)
~ qmult=(0.00000000 0.00000000 0.00000000 0.00000000 0.00000000 0.00000000 0.00000000 0.00000000 0.00000000 0.00000000 0.00000000 0.00000000 0.00000000 0.00000000 0.00000000 0.00000000 0.00000000 0.00000000 0.00000000 0.00000000 0.00000000 0.00000000 0.00000000 0.00000000)
New Loadshape.439  npts=24  interval=1   ! código=152ET071563
~ pmult=(0.89577912 0.85727032 0.83183970 0.84106373 0.82561794 0.89287514 0.87118289 0.90335175 1.04854275 1.08817559 1.14303753 1.12666918 1.09217475 1.06401795 1.05074085 1.00256873 0.96894999 1.03385979 1.13179773 1.16589830 1.12693234 1.06537635 1.01447068 0.95780689)
~ qmult=(0.90064749 0.86183901 0.83735429 0.84512485 0.82862380 0.89148323 0.86708164 0.89577059 1.04109095 1.08153825 1.13766546 1.12071060 1.08845131 1.06019673 1.04801009 1.00279560 0.97094857 1.03423725 1.13182630 1.16951352 1.13100084 1.07060542 1.02066585 0.96281836)
New Loadshape.449  npts=24  interval=1   ! código=152ET023400
~ pmult=(0.00000000 0.00000000 0.00000000 0.00000000 0.00000000 0.00000000 0.00000000 0.00000000 0.00000000 0.00000000 0.00000000 0.00000000 0.00000000 0.00000000 0.00000000 0.00000000 0.00000000 0.00000000 0.00000000 0.00000000 0.00000000 0.00000000 0.00000000 0.00000000)
~ qmult=(0.00000000 0.00000000 0.00000000 0.00000000 0.00000000 0.00000000 0.00000000 0.00000000 0.00000000 0.00000000 0.00000000 0.00000000 0.00000000 0.00000000 0.00000000 0.00000000 0.00000000 0.00000000 0.00000000 0.00000000 0.00000000 0.00000000 0.00000000 0.00000000)
New Loadshape.448  npts=24  interval=1   ! código=152IP19G613
~ pmult=(1.44034848 1.46790388 1.47722178 1.52510136 1.54441659 1.72992416 1.68795043 1.69599931 0.00000000 0.00000000 0.00000000 0.00000000 0.00000000 0.00000000 0.00000000 0.00000000 1.39404948 1.46313765 1.50254735 1.41500598 1.42034129 1.39582473 1.39025572 1.44997180)
~ qmult=(1.44528161 1.47343049 1.48310206 1.52919348 1.54692847 1.72289964 1.67680466 1.67903086 0.00000000 0.00000000 0.00000000 0.00000000 0.00000000 0.00000000 0.00000000 0.00000000 1.39362254 1.46086312 1.49986357 1.41637516 1.42269235 1.40005390 1.39568795 1.45417014)
New Loadshape.447  npts=24  interval=1   ! código=152IP19G297
~ pmult=(1.44034848 1.46790388 1.47722178 1.52510136 1.54441659 1.72992416 1.68795043 1.69599931 0.00000000 0.00000000 0.00000000 0.00000000 0.00000000 0.00000000 0.00000000 0.00000000 1.39404948 1.46313765 1.50254735 1.41500598 1.42034129 1.39582473 1.39025572 1.44997180)
~ qmult=(1.44528161 1.47343049 1.48310206 1.52919348 1.54692847 1.72289964 1.67680466 1.67903086 0.00000000 0.00000000 0.00000000 0.00000000 0.00000000 0.00000000 0.00000000 0.00000000 1.39362254 1.46086312 1.49986357 1.41637516 1.42269235 1.40005390 1.39568795 1.45417014)
New Loadshape.452  npts=24  interval=1   ! código=152ET024923
~ pmult=(0.70388004 0.69667718 0.69066365 0.69623190 0.69235108 0.75471564 0.69636045 0.79481099 1.18545636 1.36270441 1.48874403 1.48070512 1.35979663 1.22689476 1.19530961 1.14316355 1.07985103 1.11112519 1.13964163 1.02826260 1.00882450 0.91094212 0.79345358 0.75943396)
~ qmult=(0.70858321 0.70176734 0.69597173 0.70012783 0.69620409 0.75415408 0.69411392 0.78897897 1.17645510 1.35353495 1.48135889 1.47320461 1.35589491 1.22224709 1.19270184 1.14387560 1.08283279 1.11240330 1.14089924 1.03177440 1.01323621 0.91678272 0.79841063 0.76448654)
New Loadshape.453  npts=24  interval=1   ! código=152ET051639
~ pmult=(0.64842614 0.63348511 0.63278671 0.63439866 0.63239187 0.70873320 0.73762838 0.86147810 1.14604369 1.35928590 1.42179497 1.46677194 1.40407307 1.34447668 1.32324605 1.28852825 1.20451329 1.26601352 1.20107386 1.03486183 0.90699865 0.77453062 0.69447623 0.67398327)
~ qmult=(0.65292973 0.63815272 0.63762222 0.63838809 0.63565680 0.70817262 0.73513420 0.85558975 1.13750061 1.35030710 1.41526476 1.45956785 1.39994131 1.33937904 1.32052333 1.28944934 1.20837281 1.26834299 1.20267278 1.03904297 0.91120752 0.77926322 0.69938270 0.67813553)
New Loadshape.455  npts=24  interval=1   ! código=(null)
~ pmult=(0.00000000 0.00000000 0.00000000 0.00000000 0.00000000 0.00000000 0.00000000 0.00000000 0.00000000 0.00000000 0.00000000 0.00000000 0.00000000 0.00000000 0.00000000 0.00000000 0.00000000 0.00000000 0.00000000 0.00000000 0.00000000 0.00000000 0.00000000 0.00000000)
~ qmult=(0.00000000 0.00000000 0.00000000 0.00000000 0.00000000 0.00000000 0.00000000 0.00000000 0.00000000 0.00000000 0.00000000 0.00000000 0.00000000 0.00000000 0.00000000 0.00000000 0.00000000 0.00000000 0.00000000 0.00000000 0.00000000 0.00000000 0.00000000 0.00000000)
New Loadshape.458  npts=24  interval=1   ! código=152IP19G479
~ pmult=(1.44124447 1.46737585 1.47581700 1.52323987 1.54160811 1.72558003 1.68297018 1.69089742 0.00000000 0.00000000 0.00000000 0.00000000 0.00000000 0.00000000 0.00000000 0.00000000 1.39275341 1.46263847 1.50437037 1.41949600 1.42497294 1.40029076 1.39445907 1.45228606)
~ qmult=(1.44649108 1.47346944 1.48239617 1.52803859 1.54479735 1.71905596 1.67224675 1.67424681 0.00000000 0.00000000 0.00000000 0.00000000 0.00000000 0.00000000 0.00000000 0.00000000 1.39231247 1.46013029 1.50094298 1.42001779 1.42635955 1.40380745 1.39938150 1.45630583)
New Loadshape.457  npts=24  interval=1   ! código=152IP19G481
~ pmult=(1.44124447 1.46737585 1.47581700 1.52323987 1.54160811 1.72558003 1.68297018 1.69089742 0.00000000 0.00000000 0.00000000 0.00000000 0.00000000 0.00000000 0.00000000 0.00000000 1.39275341 1.46263847 1.50437037 1.41949600 1.42497294 1.40029076 1.39445907 1.45228606)
~ qmult=(1.44649108 1.47346944 1.48239617 1.52803859 1.54479735 1.71905596 1.67224675 1.67424681 0.00000000 0.00000000 0.00000000 0.00000000 0.00000000 0.00000000 0.00000000 0.00000000 1.39231247 1.46013029 1.50094298 1.42001779 1.42635955 1.40380745 1.39938150 1.45630583)
New Loadshape.459  npts=24  interval=1   ! código=152IP19F043
~ pmult=(1.44034848 1.46790388 1.47722178 1.52510136 1.54441659 1.72992416 1.68795043 1.69599931 0.00000000 0.00000000 0.00000000 0.00000000 0.00000000 0.00000000 0.00000000 0.00000000 1.39404948 1.46313765 1.50254735 1.41500598 1.42034129 1.39582473 1.39025572 1.44997180)
~ qmult=(1.44528158 1.47343055 1.48310202 1.52919343 1.54692853 1.72289968 1.67680470 1.67903090 0.00000000 0.00000000 0.00000000 0.00000000 0.00000000 0.00000000 0.00000000 0.00000000 1.39362251 1.46086318 1.49986353 1.41637523 1.42269241 1.40005376 1.39568791 1.45417010)
New Loadshape.445  npts=24  interval=1   ! código=152IP19G433
~ pmult=(1.44124444 1.46737584 1.47581730 1.52323989 1.54160806 1.72558006 1.68297011 1.69089749 0.00000000 0.00000000 0.00000000 0.00000000 0.00000000 0.00000000 0.00000000 0.00000000 1.39275329 1.46263846 1.50437027 1.41949605 1.42497297 1.40029086 1.39445896 1.45228597)
~ qmult=(1.44649109 1.47346950 1.48239596 1.52803877 1.54479733 1.71905581 1.67224701 1.67424679 0.00000000 0.00000000 0.00000000 0.00000000 0.00000000 0.00000000 0.00000000 0.00000000 1.39231233 1.46013021 1.50094314 1.42001777 1.42635949 1.40380745 1.39938141 1.45630594)
New Loadshape.444  npts=24  interval=1   ! código=152IP19G615
~ pmult=(1.44319581 1.47135890 1.48087594 1.52924261 1.54791957 1.73271546 1.68713227 1.69231003 0.00000000 0.00000000 0.00000000 0.00000000 0.00000000 0.00000000 0.00000000 0.00000000 1.38760164 1.45754837 1.49844562 1.41251027 1.41922147 1.39590695 1.39169785 1.45231723)
~ qmult=(1.44861893 1.47749605 1.48749429 1.53387581 1.55070905 1.72498739 1.67519140 1.67448595 0.00000000 0.00000000 0.00000000 0.00000000 0.00000000 0.00000000 0.00000000 0.00000000 1.38794167 1.45582088 1.49558573 1.41363123 1.42106302 1.39978991 1.39690453 1.45640415)
New Loadshape.446  npts=24  interval=1   ! código=152ET024031
~ pmult=(0.64842612 0.63348518 0.63278670 0.63439864 0.63239194 0.70873321 0.73762836 0.86147820 1.14604376 1.35928604 1.42179491 1.46677183 1.40407301 1.34447666 1.32324605 1.28852822 1.20451323 1.26601360 1.20107370 1.03486178 0.90699868 0.77453059 0.69447630 0.67398326)
~ qmult=(0.65292974 0.63815274 0.63762223 0.63838817 0.63565673 0.70817266 0.73513411 0.85558966 1.13750063 1.35030711 1.41526468 1.45956786 1.39994138 1.33937910 1.32052327 1.28944923 1.20837291 1.26834310 1.20267274 1.03904292 0.91120746 0.77926331 0.69938272 0.67813554)
New Loadshape.454  npts=24  interval=1   ! código=152IP19G023
~ pmult=(1.44034868 1.46790397 1.47722203 1.52510126 1.54441645 1.72992417 1.68795039 1.69599917 0.00000000 0.00000000 0.00000000 0.00000000 0.00000000 0.00000000 0.00000000 0.00000000 1.39404943 1.46313761 1.50254731 1.41500603 1.42034129 1.39582454 1.39025577 1.44997190)
~ qmult=(1.44528149 1.47343066 1.48310198 1.52919314 1.54692844 1.72289960 1.67680493 1.67903077 0.00000000 0.00000000 0.00000000 0.00000000 0.00000000 0.00000000 0.00000000 0.00000000 1.39362272 1.46086304 1.49986344 1.41637524 1.42269258 1.40005372 1.39568802 1.45417022)
New Loadshape.450  npts=24  interval=1   ! código=354ET054240
~ pmult=(0.00000000 0.00000000 0.00000000 0.00000000 0.00000000 0.00000000 0.00000000 0.00000000 0.00000000 0.00000000 0.00000000 0.00000000 0.00000000 0.00000000 0.00000000 0.00000000 0.00000000 0.00000000 0.00000000 0.00000000 0.00000000 0.00000000 0.00000000 0.00000000)
~ qmult=(0.00000000 0.00000000 0.00000000 0.00000000 0.00000000 0.00000000 0.00000000 0.00000000 0.00000000 0.00000000 0.00000000 0.00000000 0.00000000 0.00000000 0.00000000 0.00000000 0.00000000 0.00000000 0.00000000 0.00000000 0.00000000 0.00000000 0.00000000 0.00000000)
New Loadshape.451  npts=24  interval=1   ! código=(null)
~ pmult=(0.00000000 0.00000000 0.00000000 0.00000000 0.00000000 0.00000000 0.00000000 0.00000000 0.00000000 0.00000000 0.00000000 0.00000000 0.00000000 0.00000000 0.00000000 0.00000000 0.00000000 0.00000000 0.00000000 0.00000000 0.00000000 0.00000000 0.00000000 0.00000000)
~ qmult=(0.00000000 0.00000000 0.00000000 0.00000000 0.00000000 0.00000000 0.00000000 0.00000000 0.00000000 0.00000000 0.00000000 0.00000000 0.00000000 0.00000000 0.00000000 0.00000000 0.00000000 0.00000000 0.00000000 0.00000000 0.00000000 0.00000000 0.00000000 0.00000000)
New Loadshape.425  npts=24  interval=1   ! código=152IP19F046
~ pmult=(1.44034848 1.46790388 1.47722178 1.52510136 1.54441659 1.72992416 1.68795043 1.69599931 0.00000000 0.00000000 0.00000000 0.00000000 0.00000000 0.00000000 0.00000000 0.00000000 1.39404948 1.46313765 1.50254735 1.41500598 1.42034129 1.39582473 1.39025572 1.44997180)
~ qmult=(1.44528158 1.47343055 1.48310202 1.52919343 1.54692853 1.72289968 1.67680470 1.67903090 0.00000000 0.00000000 0.00000000 0.00000000 0.00000000 0.00000000 0.00000000 0.00000000 1.39362251 1.46086318 1.49986353 1.41637523 1.42269241 1.40005376 1.39568791 1.45417010)
New Loadshape.456  npts=24  interval=1   ! código=354ET065199
~ pmult=(0.00000000 0.00000000 0.00000000 0.00000000 0.00000000 0.00000000 0.00000000 0.00000000 0.00000000 0.00000000 0.00000000 0.00000000 0.00000000 0.00000000 0.00000000 0.00000000 0.00000000 0.00000000 0.00000000 0.00000000 0.00000000 0.00000000 0.00000000 0.00000000)
~ qmult=(0.00000000 0.00000000 0.00000000 0.00000000 0.00000000 0.00000000 0.00000000 0.00000000 0.00000000 0.00000000 0.00000000 0.00000000 0.00000000 0.00000000 0.00000000 0.00000000 0.00000000 0.00000000 0.00000000 0.00000000 0.00000000 0.00000000 0.00000000 0.00000000)
New Loadshape.461  npts=24  interval=1   ! código=152ET133432
~ pmult=(0.00000000 0.00000000 0.00000000 0.00000000 0.00000000 0.00000000 0.00000000 0.00000000 0.00000000 0.00000000 0.00000000 0.00000000 0.00000000 0.00000000 0.00000000 0.00000000 0.00000000 0.00000000 0.00000000 0.00000000 0.00000000 0.00000000 0.00000000 0.00000000)
~ qmult=(0.00000000 0.00000000 0.00000000 0.00000000 0.00000000 0.00000000 0.00000000 0.00000000 0.00000000 0.00000000 0.00000000 0.00000000 0.00000000 0.00000000 0.00000000 0.00000000 0.00000000 0.00000000 0.00000000 0.00000000 0.00000000 0.00000000 0.00000000 0.00000000)
New Loadshape.424  npts=24  interval=1   ! código=152IP19F045
~ pmult=(1.44034868 1.46790397 1.47722203 1.52510126 1.54441645 1.72992417 1.68795039 1.69599917 0.00000000 0.00000000 0.00000000 0.00000000 0.00000000 0.00000000 0.00000000 0.00000000 1.39404943 1.46313761 1.50254731 1.41500603 1.42034129 1.39582454 1.39025577 1.44997190)
~ qmult=(1.44528149 1.47343066 1.48310198 1.52919314 1.54692844 1.72289960 1.67680493 1.67903077 0.00000000 0.00000000 0.00000000 0.00000000 0.00000000 0.00000000 0.00000000 0.00000000 1.39362272 1.46086304 1.49986344 1.41637524 1.42269258 1.40005372 1.39568802 1.45417022)
New Loadshape.443  npts=24  interval=1   ! código=354IP19F179
~ pmult=(1.44319571 1.47135890 1.48087618 1.52924280 1.54791952 1.73271517 1.68713227 1.69231017 0.00000000 0.00000000 0.00000000 0.00000000 0.00000000 0.00000000 0.00000000 0.00000000 1.38760174 1.45754832 1.49844581 1.41251032 1.41922156 1.39590681 1.39169775 1.45231699)
~ qmult=(1.44861897 1.47749604 1.48749429 1.53387570 1.55070900 1.72498740 1.67519125 1.67448600 0.00000000 0.00000000 0.00000000 0.00000000 0.00000000 0.00000000 0.00000000 0.00000000 1.38794166 1.45582102 1.49558562 1.41363147 1.42106296 1.39978990 1.39690457 1.45640414)
New Loadshape.442  npts=24  interval=1   ! código=354IP19F031
~ pmult=(1.44319571 1.47135890 1.48087618 1.52924280 1.54791952 1.73271517 1.68713227 1.69231017 0.00000000 0.00000000 0.00000000 0.00000000 0.00000000 0.00000000 0.00000000 0.00000000 1.38760174 1.45754832 1.49844581 1.41251032 1.41922156 1.39590681 1.39169775 1.45231699)
~ qmult=(1.44861897 1.47749604 1.48749429 1.53387570 1.55070900 1.72498740 1.67519125 1.67448600 0.00000000 0.00000000 0.00000000 0.00000000 0.00000000 0.00000000 0.00000000 0.00000000 1.38794166 1.45582102 1.49558562 1.41363147 1.42106296 1.39978990 1.39690457 1.45640414)
New Loadshape.441  npts=24  interval=1   ! código=354IP19F177
~ pmult=(1.44319576 1.47135871 1.48087597 1.52924284 1.54791970 1.73271530 1.68713230 1.69231008 0.00000000 0.00000000 0.00000000 0.00000000 0.00000000 0.00000000 0.00000000 0.00000000 1.38760156 1.45754839 1.49844573 1.41251032 1.41922157 1.39590694 1.39169768 1.45231714)
~ qmult=(1.44861901 1.47749619 1.48749401 1.53387556 1.55070899 1.72498717 1.67519126 1.67448619 0.00000000 0.00000000 0.00000000 0.00000000 0.00000000 0.00000000 0.00000000 0.00000000 1.38794183 1.45582086 1.49558585 1.41363129 1.42106322 1.39978980 1.39690454 1.45640425)
New Loadshape.466  npts=24  interval=1   ! código=152IP18G499
~ pmult=(1.44319582 1.47135886 1.48087614 1.52924262 1.54791967 1.73271522 1.68713235 1.69231025 0.00000000 0.00000000 0.00000000 0.00000000 0.00000000 0.00000000 0.00000000 0.00000000 1.38760164 1.45754842 1.49844566 1.41251025 1.41922153 1.39590700 1.39169759 1.45231697)
~ qmult=(1.44861916 1.47749626 1.48749409 1.53387539 1.55070894 1.72498738 1.67519146 1.67448590 0.00000000 0.00000000 0.00000000 0.00000000 0.00000000 0.00000000 0.00000000 0.00000000 1.38794175 1.45582094 1.49558580 1.41363128 1.42106302 1.39978983 1.39690469 1.45640410)
New Loadshape.465  npts=24  interval=1   ! código=152IP18G498
~ pmult=(1.44124435 1.46737591 1.47581723 1.52323981 1.54160825 1.72557994 1.68297024 1.69089751 0.00000000 0.00000000 0.00000000 0.00000000 0.00000000 0.00000000 0.00000000 0.00000000 1.39275324 1.46263853 1.50437034 1.41949608 1.42497288 1.40029076 1.39445895 1.45228600)
~ qmult=(1.44649111 1.47346926 1.48239611 1.52803887 1.54479733 1.71905594 1.67224700 1.67424697 0.00000000 0.00000000 0.00000000 0.00000000 0.00000000 0.00000000 0.00000000 0.00000000 1.39231254 1.46013014 1.50094295 1.42001776 1.42635943 1.40380730 1.39938141 1.45630589)
New Loadshape.467  npts=24  interval=1   ! código=152ET074709
~ pmult=(0.00000000 0.00000000 0.00000000 0.00000000 0.00000000 0.00000000 0.00000000 0.00000000 0.00000000 0.00000000 0.00000000 0.00000000 0.00000000 0.00000000 0.00000000 0.00000000 0.00000000 0.00000000 0.00000000 0.00000000 0.00000000 0.00000000 0.00000000 0.00000000)
~ qmult=(0.00000000 0.00000000 0.00000000 0.00000000 0.00000000 0.00000000 0.00000000 0.00000000 0.00000000 0.00000000 0.00000000 0.00000000 0.00000000 0.00000000 0.00000000 0.00000000 0.00000000 0.00000000 0.00000000 0.00000000 0.00000000 0.00000000 0.00000000 0.00000000)
New Loadshape.464  npts=24  interval=1   ! código=152EP005588
~ pmult=(0.58555981 0.59094233 0.59221061 0.64840970 0.75779872 0.92254495 1.32878166 1.42056961 1.43936543 1.44130648 1.41595004 1.42760163 1.40705276 1.42427302 1.35860967 1.26028354 1.11642955 0.82548146 0.74793219 0.71305660 0.70841508 0.66699756 0.60238598 0.59804162)
~ qmult=(0.64870394 0.66125949 0.65926825 0.66105467 0.62707495 0.74154126 1.35257507 1.42740453 1.42372764 1.38606615 1.39648847 1.46273139 1.42963389 1.44461995 1.39290450 1.33441447 1.21630054 0.79304414 0.69380521 0.63253584 0.66356467 0.65060867 0.65142379 0.64924854)
New Loadshape.463  npts=24  interval=1   ! código=152IP19G642
~ pmult=(1.44124447 1.46737585 1.47581700 1.52323987 1.54160811 1.72558003 1.68297018 1.69089742 0.00000000 0.00000000 0.00000000 0.00000000 0.00000000 0.00000000 0.00000000 0.00000000 1.39275341 1.46263847 1.50437037 1.41949600 1.42497294 1.40029076 1.39445907 1.45228606)
~ qmult=(1.44649105 1.47346941 1.48239615 1.52803858 1.54479734 1.71905596 1.67224690 1.67424680 0.00000000 0.00000000 0.00000000 0.00000000 0.00000000 0.00000000 0.00000000 0.00000000 1.39231260 1.46013027 1.50094296 1.42001777 1.42635952 1.40380742 1.39938147 1.45630581)
New Loadshape.469  npts=24  interval=1   ! código=152IP19G662
~ pmult=(1.44124449 1.46737577 1.47581716 1.52323983 1.54160832 1.72558010 1.68297031 1.69089734 0.00000000 0.00000000 0.00000000 0.00000000 0.00000000 0.00000000 0.00000000 0.00000000 1.39275333 1.46263857 1.50437038 1.41949601 1.42497276 1.40029074 1.39445887 1.45228602)
~ qmult=(1.44649110 1.47346933 1.48239606 1.52803871 1.54479736 1.71905602 1.67224668 1.67424689 0.00000000 0.00000000 0.00000000 0.00000000 0.00000000 0.00000000 0.00000000 0.00000000 1.39231246 1.46013029 1.50094293 1.42001788 1.42635937 1.40380740 1.39938152 1.45630600)
New Loadshape.468  npts=24  interval=1   ! código=152EP010714
~ pmult=(0.90510983 0.88344676 0.86052726 0.87192491 0.86411611 0.99653932 1.03124111 1.08534575 1.10061668 1.07213603 1.02501261 1.01956530 1.00451034 1.02219368 1.03393291 0.99179529 0.97718861 1.07520894 1.12678098 1.06556871 1.05460932 0.98299996 0.96597211 0.98365749)
~ qmult=(0.97731882 0.91633600 0.94613218 0.91718235 0.97066329 1.03075811 1.15397736 1.08243157 1.04237364 1.02316650 0.94470297 0.92064614 0.90384651 0.93577612 0.96152679 0.96552879 0.95041500 1.09418902 1.15072707 1.07328716 1.05546952 0.99397016 0.98411378 1.00546115)
New Loadshape.462  npts=24  interval=1   ! código=152EP007289
~ pmult=(0.84412614 0.85171169 0.84854084 0.86731939 0.97506219 1.23000346 1.13653268 1.17513280 1.11196548 1.14578949 1.13554392 1.09736941 1.11830287 1.20110546 1.23629658 1.04835199 1.00155991 0.79293909 0.83217573 0.95024492 0.89732394 0.84215524 0.82709218 0.83335461)
~ qmult=(1.02856858 1.03100176 1.03766579 1.03358443 1.06347436 1.08158808 1.01202615 1.01273242 0.95864407 0.96342693 0.97361223 1.03093527 1.03985248 1.07393373 1.08567412 1.02157474 0.93964368 0.88161186 0.90569894 0.95678945 0.97817876 0.96295494 0.94372506 0.98310215)
New Loadshape.472  npts=24  interval=1   ! código=152ET071513
~ pmult=(0.64842611 0.63348512 0.63278668 0.63439865 0.63239193 0.70873323 0.73762830 0.86147816 1.14604375 1.35928600 1.42179497 1.46677183 1.40407327 1.34447661 1.32324613 1.28852824 1.20451316 1.26601349 1.20107380 1.03486165 0.90699873 0.77453061 0.69447629 0.67398328)
~ qmult=(0.65292974 0.63815272 0.63762228 0.63838807 0.63565676 0.70817273 0.73513412 0.85558968 1.13750072 1.35030707 1.41526485 1.45956775 1.39994131 1.33937906 1.32052338 1.28944925 1.20837289 1.26834313 1.20267265 1.03904290 0.91120746 0.77926320 0.69938272 0.67813555)
New Loadshape.460  npts=24  interval=1   ! código=152EP004401
~ pmult=(0.52878565 0.53743227 0.53710540 0.55309461 0.61575111 0.81873105 1.01492602 1.27657392 1.44461476 1.53095033 1.54215481 1.57796374 1.59555904 1.73736664 1.70578126 1.52391974 1.14676614 0.81361044 0.68404751 0.59407738 0.57808055 0.55572985 0.54333716 0.54364063)
~ qmult=(0.78781419 0.80438292 0.80293545 0.80865138 0.80106003 0.92704050 0.97192954 1.05666051 1.11152951 1.13572861 1.16808869 1.27499308 1.27590307 1.38926913 1.38461951 1.28229519 1.08030322 0.97081014 0.92216502 0.81708194 0.83114357 0.80314913 0.79591373 0.79653195)
New Loadshape.475  npts=24  interval=1   ! código=152ET027203
~ pmult=(0.94496164 0.87981907 0.83141213 0.83646695 0.81832668 0.89018491 0.89212265 0.92193579 0.98358098 0.99549136 1.00235304 0.98273370 1.00481014 1.03705533 0.99274610 0.98795285 0.98216907 1.05223930 1.16741605 1.27139109 1.19958578 1.15161934 1.12621522 1.04741085)
~ qmult=(0.95032066 0.88506564 0.83626854 0.83963236 0.82348935 0.88921849 0.88669593 0.91433898 0.97413173 0.98619534 0.99659915 0.97699191 1.00249089 1.03183222 0.99007580 0.98689277 0.98428510 1.05392806 1.16776726 1.27549225 1.20419781 1.15873732 1.13171216 1.05364027)
New Loadshape.482  npts=24  interval=1   ! código=152IP19G515
~ pmult=(1.44124460 1.46737581 1.47581705 1.52323975 1.54160816 1.72558023 1.68297040 1.69089744 0.00000000 0.00000000 0.00000000 0.00000000 0.00000000 0.00000000 0.00000000 0.00000000 1.39275331 1.46263848 1.50437033 1.41949604 1.42497280 1.40029079 1.39445884 1.45228599)
~ qmult=(1.44649112 1.47346931 1.48239606 1.52803863 1.54479721 1.71905589 1.67224700 1.67424694 0.00000000 0.00000000 0.00000000 0.00000000 0.00000000 0.00000000 0.00000000 0.00000000 1.39231246 1.46013033 1.50094302 1.42001765 1.42635948 1.40380750 1.39938155 1.45630582)
New Loadshape.483  npts=24  interval=1   ! código=152ET014788
~ pmult=(0.87747759 0.82131777 0.78076137 0.78408469 0.77043753 0.84411750 0.85238749 0.90706445 1.01619312 1.07455683 1.09035033 1.08493947 1.09319929 1.10866374 1.06461519 1.05901231 1.03853351 1.10663370 1.18093913 1.22788751 1.13900675 1.07336091 1.03604643 0.96841339)
~ qmult=(0.88212499 0.82658991 0.78655430 0.78884172 0.77317602 0.84226859 0.84934442 0.89994311 1.00735610 1.06728669 1.08501582 1.07824177 1.08851377 1.10375210 1.06160525 1.05812321 1.04049826 1.10736691 1.18178830 1.23225145 1.14299742 1.07961669 1.04288375 0.97385945)
New Loadshape.491  npts=24  interval=1   ! código=152ET131668
~ pmult=(0.99037044 0.95407596 0.93455224 0.95125270 0.92940375 0.99236707 0.95810321 0.94116284 1.02943098 0.99267030 1.05566739 1.02567374 0.98569955 0.96009041 0.98431223 0.89622801 0.85326511 0.92914307 1.07890059 1.16381392 1.16305227 1.12037090 1.08379439 1.02659895)
~ qmult=(0.99599901 0.96013701 0.94067556 0.95594593 0.93316611 0.99057757 0.95355711 0.93303425 1.02042985 0.98534385 1.04994789 1.01967376 0.98147181 0.95523049 0.98132041 0.89596082 0.85489647 0.93027012 1.07943003 1.16727834 1.16718158 1.12593638 1.09064212 1.03189351)
New Loadshape.502  npts=24  interval=1   ! código=152ET053161
~ pmult=(1.00225433 0.95176999 0.91674697 0.93043255 0.90797456 0.97444701 0.95818236 0.94644115 0.99255639 0.95363358 0.98548495 0.95562324 0.95229001 0.96436789 0.96269351 0.90636782 0.88252156 0.96092563 1.11057177 1.22442774 1.19755720 1.15986529 1.13604326 1.06682126)
~ qmult=(1.00668585 0.95656801 0.91985424 0.93278194 0.91232561 0.97128037 0.95019418 0.94465336 0.98409594 0.94784177 0.97960940 0.95052473 0.94906634 0.95967009 0.96040547 0.90596952 0.88671983 0.96009110 1.10983920 1.22882714 1.20260207 1.16139942 1.14497568 1.07401873)
New Loadshape.498  npts=24  interval=1   ! código=152EP002726
~ pmult=(0.06435352 0.06557155 0.06322839 0.06527718 0.06608083 0.16083650 2.34573587 3.11132414 2.63170993 2.50275473 2.15674266 2.05657293 1.85889641 2.01242948 2.04529700 1.63156963 0.68326295 0.08696487 0.07541968 0.06319556 0.06345646 0.06237758 0.06214546 0.06479666)
~ qmult=(1.44718977 1.47906173 1.48862193 1.53078639 1.54384659 1.68219005 0.92091802 0.30718698 0.23303987 0.18425025 0.23081047 0.31032059 0.44045188 0.39296075 0.28943610 0.46262651 0.99820343 1.45550053 1.49919179 1.40963030 1.42747707 1.40526074 1.40501845 1.45601983)
New Loadshape.493  npts=24  interval=1   ! código=152ET098063
~ pmult=(0.68130983 0.65904040 0.65108845 0.65247984 0.64891465 0.72508785 0.75187480 0.86714007 1.12473917 1.31646935 1.36998520 1.40744076 1.35783187 1.31149508 1.28386438 1.25690392 1.18417423 1.24632860 1.20144448 1.06843684 0.94409056 0.82172604 0.74833118 0.71980245)
~ qmult=(0.68595313 0.66381046 0.65597905 0.65649819 0.65218049 0.72442060 0.74923551 0.86110140 1.11621044 1.30760405 1.36351671 1.40034689 1.35366102 1.30635333 1.28105690 1.25763994 1.18781520 1.24846035 1.20288830 1.07261504 0.94834882 0.82664013 0.75352067 0.72414337)
New Loadshape.495  npts=24  interval=1   ! código=(null)
~ pmult=(0.00000000 0.00000000 0.00000000 0.00000000 0.00000000 0.00000000 0.00000000 0.00000000 0.00000000 0.00000000 0.00000000 0.00000000 0.00000000 0.00000000 0.00000000 0.00000000 0.00000000 0.00000000 0.00000000 0.00000000 0.00000000 0.00000000 0.00000000 0.00000000)
~ qmult=(0.00000000 0.00000000 0.00000000 0.00000000 0.00000000 0.00000000 0.00000000 0.00000000 0.00000000 0.00000000 0.00000000 0.00000000 0.00000000 0.00000000 0.00000000 0.00000000 0.00000000 0.00000000 0.00000000 0.00000000 0.00000000 0.00000000 0.00000000 0.00000000)
New Loadshape.486  npts=24  interval=1   ! código=152ET131670
~ pmult=(0.98802336 0.95133044 0.93139050 0.94791781 0.92623400 0.98978047 0.95500898 0.93932472 1.03037916 0.99565971 1.05847056 1.02838743 0.98849843 0.96263737 0.98516748 0.89882333 0.85611585 0.93164878 1.08019192 1.16409892 1.16296155 1.11999416 1.08279427 1.02516079)
~ qmult=(0.99368951 0.95671650 0.93825944 0.95327387 0.93067041 0.98774648 0.95097712 0.93138397 1.02122614 0.98823980 1.05264383 1.02275375 0.98468693 0.95744982 0.98185570 0.89807063 0.85825376 0.93126980 1.08062959 1.16712258 1.16717264 1.12529838 1.08952148 1.03108789)
New Loadshape.473  npts=24  interval=1   ! código=152ET131669
~ pmult=(1.00405228 0.96578083 0.94574001 0.96259150 0.93989130 1.00314518 0.96979163 0.94719619 1.02173309 0.97534397 1.03499996 1.00336953 0.96791825 0.94745963 0.97355826 0.88441803 0.84300164 0.92093389 1.07640798 1.17136486 1.17115463 1.13132608 1.09880459 1.04001670)
~ qmult=(1.00986538 0.97220478 0.95228493 0.96736326 0.94394009 1.00105061 0.96520572 0.93984058 1.01255412 0.96778205 1.02948060 0.99749497 0.96382321 0.94319717 0.96995884 0.88407935 0.84448681 0.92118243 1.07692505 1.17424841 1.17538849 1.13735857 1.10474962 1.04553497)
New Loadshape.494  npts=24  interval=1   ! código=152EP045671
~ pmult=(0.46492422 0.47372383 0.47665638 0.49210147 0.47899984 0.55774499 1.10841165 1.86907182 2.00865266 1.84142606 1.71847479 1.68856167 1.55185825 1.57778946 1.59613249 1.45895127 1.01831873 0.70681569 0.55884310 0.47411839 0.47607575 0.46798165 0.46624017 0.46812569)
~ qmult=(0.82127996 0.85498803 0.84258693 0.86872107 0.85974222 0.95687505 1.23385112 1.41688319 1.36803405 1.28420912 1.20895337 1.19580058 1.05994452 1.09468429 1.15934930 1.10959660 0.92419251 0.84578487 0.85079118 0.78706522 0.80797786 0.81232651 0.81007138 0.82629106)
New Loadshape.504  npts=24  interval=1   ! código=152IP19G383
~ pmult=(0.00000000 0.00000000 0.00000000 0.00000000 0.00000000 0.00000000 0.00000000 0.00000000 0.00000000 0.00000000 0.00000000 0.00000000 0.00000000 0.00000000 0.00000000 0.00000000 0.00000000 0.00000000 0.00000000 0.00000000 0.00000000 0.00000000 0.00000000 0.00000000)
~ qmult=(0.00000000 0.00000000 0.00000000 0.00000000 0.00000000 0.00000000 0.00000000 0.00000000 0.00000000 0.00000000 0.00000000 0.00000000 0.00000000 0.00000000 0.00000000 0.00000000 0.00000000 0.00000000 0.00000000 0.00000000 0.00000000 0.00000000 0.00000000 0.00000000)
New Loadshape.512  npts=24  interval=1   ! código=152ET025815
~ pmult=(0.78710204 0.75622051 0.73914793 0.74443544 0.73508227 0.80699190 0.81240387 0.88640805 1.08690598 1.20264577 1.25492928 1.26684528 1.22664357 1.19161676 1.17157500 1.13458946 1.07876914 1.14361355 1.16772159 1.11782219 1.03248496 0.94033405 0.87927989 0.83643153)
~ qmult=(0.79153003 0.76100587 0.74477889 0.74836429 0.73951565 0.80524565 0.81011012 0.88025239 1.07843823 1.19448095 1.24844123 1.26030402 1.22222419 1.18583414 1.16754016 1.13505257 1.08140600 1.14455799 1.16932384 1.12214278 1.03775963 0.94608960 0.88456542 0.84103637)
New Loadshape.503  npts=24  interval=1   ! código=152ET071582
~ pmult=(0.73745766 0.71035190 0.69758135 0.70095978 0.69451638 0.76813160 0.78182394 0.87512132 1.10560783 1.25743153 1.31159470 1.33436336 1.28879935 1.24680934 1.22215748 1.18993399 1.12704050 1.18979810 1.18306656 1.09487814 0.99323906 0.88729207 0.81918259 0.78286150)
~ qmult=(0.74242734 0.71525069 0.70320367 0.70573251 0.69792313 0.76695155 0.77891851 0.86951193 1.09701254 1.24887209 1.30485995 1.32720432 1.28466823 1.24138721 1.21892415 1.19058192 1.13043070 1.19156138 1.18409104 1.09867826 0.99737922 0.89223632 0.82505826 0.78713507)
New Loadshape.516  npts=24  interval=1   ! código=152ET022069
~ pmult=(0.72241615 0.69221906 0.67639129 0.67760518 0.67217778 0.74776995 0.77137968 0.87501920 1.09996171 1.26437691 1.30811735 1.33654362 1.30117939 1.26946335 1.23615834 1.21641655 1.15617436 1.21911448 1.19958924 1.10613035 0.98784264 0.87753304 0.81196428 0.77445610)
~ qmult=(0.72710398 0.69683333 0.68156423 0.68120448 0.67549008 0.74680908 0.76839546 0.86917092 1.09197499 1.25546291 1.30236062 1.32956173 1.29694301 1.26474309 1.23275596 1.21628382 1.15936197 1.22145694 1.20066924 1.11014039 0.99201373 0.88298353 0.81719777 0.77951875)
New Loadshape.501  npts=24  interval=1   ! código=152EP052203
~ pmult=(0.93107167 0.90874907 0.90432647 0.93362931 0.96612641 1.04641290 0.88260557 0.86327264 0.84515043 0.84821164 0.84973628 0.86378261 0.86056223 0.88511578 0.87482194 0.85743937 0.92706140 1.15225946 1.35791011 1.45328477 1.43995617 1.24447749 1.10734377 0.99669252)
~ qmult=(0.88640483 0.90356112 0.90940136 0.93760785 0.94808910 1.13241336 1.32636697 1.32729276 1.25735233 1.21502458 1.13857023 1.12082975 1.07098362 1.06574965 1.02146412 0.99266900 0.95634029 0.82843251 0.78387720 0.80443583 0.82950897 0.81659899 0.83521238 0.89181319)
New Loadshape.508  npts=24  interval=1   ! código=152ET017672
~ pmult=(1.01826515 0.97398352 0.94785405 0.96360495 0.94080510 1.00504968 0.97910114 0.95491239 1.00331685 0.94784380 0.99448570 0.96256540 0.94308643 0.93934098 0.95900238 0.88011470 0.84576255 0.92630411 1.08534152 1.19797901 1.18850311 1.15206006 1.12722125 1.06349616)
~ qmult=(1.02375522 0.98020829 0.95403061 0.96879216 0.94425073 1.00320263 0.97433048 0.94716430 0.99368753 0.94050340 0.98865427 0.95751178 0.93872055 0.93432119 0.95618971 0.87990871 0.84779851 0.92640309 1.08554563 1.20193147 1.19217348 1.15808423 1.13374634 1.06908568)
New Loadshape.523  npts=24  interval=1   ! código=152ET001281
~ pmult=(0.91552310 0.86135561 0.82374119 0.82927230 0.81307494 0.88482217 0.88541951 0.91896586 1.00954093 1.03876187 1.06025442 1.04732658 1.05102183 1.06395086 1.03423686 1.01205431 0.98996795 1.06168418 1.15850772 1.22499244 1.15537891 1.09800511 1.06501911 0.99712225)
~ qmult=(0.92161660 0.86674989 0.82941799 0.83392944 0.81684261 0.88325214 0.88135054 0.91260578 1.00158962 1.03042226 1.05437308 1.04146537 1.04711052 1.05931142 1.03005272 1.01089653 0.99107559 1.06180411 1.15857900 1.22862393 1.15964844 1.10465790 1.07146621 1.00315830)
New Loadshape.526  npts=24  interval=1   ! código=152ET133163
~ pmult=(0.00000000 0.00000000 0.00000000 0.00000000 0.00000000 0.00000000 0.00000000 0.00000000 0.00000000 0.00000000 0.00000000 0.00000000 0.00000000 0.00000000 0.00000000 0.00000000 0.00000000 0.00000000 0.00000000 0.00000000 0.00000000 0.00000000 0.00000000 0.00000000)
~ qmult=(0.00000000 0.00000000 0.00000000 0.00000000 0.00000000 0.00000000 0.00000000 0.00000000 0.00000000 0.00000000 0.00000000 0.00000000 0.00000000 0.00000000 0.00000000 0.00000000 0.00000000 0.00000000 0.00000000 0.00000000 0.00000000 0.00000000 0.00000000 0.00000000)
New Loadshape.496  npts=24  interval=1   ! código=152ET056622
~ pmult=(0.82162127 0.77614105 0.74599705 0.74910387 0.73769876 0.81162333 0.82474977 0.89509033 1.04710427 1.14286369 1.17056071 1.17673159 1.16821850 1.16531593 1.12643149 1.11403717 1.07863557 1.14504042 1.18583766 1.18075326 1.08307400 1.00168701 0.95368789 0.89799539)
~ qmult=(0.82741006 0.78240625 0.75002485 0.75183303 0.74127345 0.80954159 0.82137963 0.88833634 1.04030099 1.13543953 1.16312695 1.17059601 1.16442667 1.16175873 1.12355200 1.11212529 1.08056735 1.14726944 1.18640830 1.18515827 1.08776189 1.00562585 0.96102681 0.90265073)
New Loadshape.521  npts=24  interval=1   ! código=152ET085321
~ pmult=(0.74901701 0.71303796 0.69127207 0.69227973 0.68552986 0.76027550 0.77740017 0.87390614 1.08672401 1.23364056 1.27462499 1.29411544 1.26511155 1.23933989 1.19916881 1.18533317 1.13573752 1.19709387 1.19743222 1.13204990 1.02243343 0.92189270 0.85878288 0.81380063)
~ qmult=(0.75405821 0.71781058 0.69657157 0.69698956 0.68925837 0.75892401 0.77364253 0.86717179 1.07831641 1.22572138 1.26836804 1.28717701 1.26094522 1.23414817 1.19622377 1.18601132 1.13874334 1.19894480 1.19818399 1.13596902 1.02687527 0.92738448 0.86391372 0.81864743)
New Loadshape.427  npts=24  interval=1   ! código=152ET084330
~ pmult=(0.00000000 0.00000000 0.00000000 0.00000000 0.00000000 0.00000000 0.00000000 0.00000000 0.00000000 0.00000000 0.00000000 0.00000000 0.00000000 0.00000000 0.00000000 0.00000000 0.00000000 0.00000000 0.00000000 0.00000000 0.00000000 0.00000000 0.00000000 0.00000000)
~ qmult=(0.00000000 0.00000000 0.00000000 0.00000000 0.00000000 0.00000000 0.00000000 0.00000000 0.00000000 0.00000000 0.00000000 0.00000000 0.00000000 0.00000000 0.00000000 0.00000000 0.00000000 0.00000000 0.00000000 0.00000000 0.00000000 0.00000000 0.00000000 0.00000000)
New Loadshape.426  npts=24  interval=1   ! código=152ET034278
~ pmult=(0.68334592 0.66684688 0.66358704 0.66663489 0.66263402 0.73659212 0.75369653 0.86340068 1.13831673 1.32647525 1.39356883 1.42738807 1.36278209 1.30165750 1.28251373 1.24254400 1.16449244 1.22450059 1.18629214 1.04730028 0.93849195 0.81671903 0.73767229 0.71254702)
~ qmult=(0.68782117 0.67186419 0.66895294 0.67068912 0.66676118 0.73579589 0.75114937 0.85681569 1.13006578 1.31691297 1.38611168 1.42075829 1.35930699 1.29614573 1.28055019 1.24306273 1.16764073 1.22696371 1.18774075 1.05087553 0.94318559 0.82200734 0.74253253 0.71628989)
New Loadshape.506  npts=24  interval=1   ! código=152ET053186
~ pmult=(0.86208403 0.82415185 0.80188327 0.81036338 0.79578736 0.86633573 0.86481768 0.90970579 1.05309603 1.11393560 1.15887084 1.15716344 1.13068146 1.11277385 1.10095417 1.05597839 1.01112871 1.08105522 1.14747906 1.15536272 1.08814522 1.01440693 0.96758530 0.91625398)
~ qmult=(0.86827874 0.82941938 0.80753820 0.81454963 0.79957131 0.86427382 0.86096063 0.90245668 1.04412385 1.10511965 1.15249748 1.15138313 1.12583309 1.10811023 1.09748463 1.05615015 1.01326020 1.08145519 1.14887038 1.16015161 1.09210168 1.02037233 0.97438997 0.92164804)
New Loadshape.522  npts=24  interval=1   ! código=152ET027596
~ pmult=(0.68792373 0.66896295 0.66237437 0.66520501 0.66126986 0.73442554 0.74441384 0.85432715 1.13675684 1.32330703 1.39162233 1.42003895 1.35592142 1.29179002 1.26591095 1.23185225 1.16000954 1.21627637 1.18752243 1.05892824 0.95631678 0.83889342 0.75753259 0.72841839)
~ qmult=(0.69285864 0.67416891 0.66682331 0.66873895 0.66400902 0.73340363 0.74191673 0.84909671 1.12821048 1.31441039 1.38485489 1.41310797 1.35188482 1.28622985 1.26381150 1.23250080 1.16345023 1.21805742 1.18865762 1.06331729 0.96056554 0.84402394 0.76248789 0.73341348)
New Loadshape.518  npts=24  interval=1   ! código=152EP006209
~ pmult=(0.89250542 0.90939792 0.91502745 0.90039534 0.89653810 1.03723264 1.04382407 1.04818542 1.09179440 1.02358361 1.00513997 1.00959137 0.96819791 1.02780463 1.25892065 1.26116714 1.03644085 0.90457313 1.01692473 0.99969610 1.00382323 0.89213600 0.90228303 0.95481687)
~ qmult=(0.99614393 1.01542424 1.02198754 1.02126486 1.03268130 1.14935259 1.11760620 1.08288197 1.02840791 0.99378733 0.94951395 0.96930388 0.92960504 0.94433410 0.93975700 0.91326515 0.92844379 1.00449409 1.04781438 0.99040351 0.99508660 0.96475734 0.97688015 0.98680315)
New Loadshape.499  npts=24  interval=1   ! código=152ET000673
~ pmult=(0.82461881 0.79283746 0.77619082 0.78358112 0.77244152 0.84398701 0.84423994 0.90342943 1.06766012 1.15782341 1.21047463 1.21624152 1.17788114 1.14585735 1.13336904 1.08809353 1.04706867 1.11399710 1.15733082 1.12803210 1.05637950 0.97175776 0.91505980 0.87164741)
~ qmult=(0.82934255 0.79989923 0.78322639 0.78834945 0.77677330 0.84435520 0.84244865 0.89771858 1.05714520 1.14905998 1.20341383 1.20793900 1.17211524 1.13872518 1.12838809 1.08697769 1.05042981 1.11517251 1.15812256 1.13293550 1.06074629 0.97820799 0.92075037 0.87775741)
New Loadshape.510  npts=24  interval=1   ! código=152ET009617
~ pmult=(0.81531914 0.78925204 0.77767948 0.78629665 0.77480326 0.84494162 0.83906833 0.89634669 1.08716061 1.18024895 1.24415964 1.24985300 1.19805335 1.15307991 1.14888741 1.09223953 1.03564428 1.10201412 1.14451419 1.10347718 1.03989429 0.95289856 0.89224307 0.85192468)
~ qmult=(0.82034059 0.79458368 0.78330845 0.79136213 0.77849349 0.84381661 0.83611570 0.88977780 1.07807709 1.17158220 1.23769092 1.24274241 1.19353378 1.14798732 1.14513384 1.09223732 1.03943466 1.10370611 1.14583644 1.10716768 1.04464565 0.95776119 0.89767601 0.85698891)
New Loadshape.500  npts=24  interval=1   ! código=152ET132083
~ pmult=(0.00000000 0.00000000 0.00000000 0.00000000 0.00000000 0.00000000 0.00000000 0.00000000 0.00000000 0.00000000 0.00000000 0.00000000 0.00000000 0.00000000 0.00000000 0.00000000 0.00000000 0.00000000 0.00000000 0.00000000 0.00000000 0.00000000 0.00000000 0.00000000)
~ qmult=(0.00000000 0.00000000 0.00000000 0.00000000 0.00000000 0.00000000 0.00000000 0.00000000 0.00000000 0.00000000 0.00000000 0.00000000 0.00000000 0.00000000 0.00000000 0.00000000 0.00000000 0.00000000 0.00000000 0.00000000 0.00000000 0.00000000 0.00000000 0.00000000)
New Loadshape.490  npts=24  interval=1   ! código=152ET132573
...